@<TRIPOS>MOLECULE
*****
 36 38 0 0 0
SMALL
GASTEIGER

@<TRIPOS>ATOM
      1 C          -9.1207    0.0414    9.5081 C.ar    1  UNL1        0.1722
      2 C          -7.7465   -0.0691    9.2939 C.ar    1  UNL1       -0.0150
      3 C          -9.9773    0.0996    8.4098 C.ar    1  UNL1       -0.0150
      4 C          -9.4744    0.0506    7.1024 C.ar    1  UNL1       -0.0473
      5 H         -10.2112    0.1134    6.3433 H       1  UNL1        0.0626
      6 C          -8.0869   -0.0654    6.8535 C.ar    1  UNL1        0.0225
      7 C          -7.2418   -0.1222    7.9951 C.ar    1  UNL1       -0.0473
      8 H          -6.1668   -0.2061    7.8981 H       1  UNL1        0.0626
      9 C          -7.9762   -0.0909    4.0763 C.ar    1  UNL1        0.0225
     10 C          -9.3373   -0.0775    3.6959 C.ar    1  UNL1       -0.0474
     11 H         -10.1470   -0.0986    4.3811 H       1  UNL1        0.0626
     12 C          -9.7146   -0.0431    2.3440 C.ar    1  UNL1       -0.0187
     13 H         -10.7697   -0.0310    2.0947 H       1  UNL1        0.0654
     14 C          -8.7669   -0.0228    1.3115 C.ar    1  UNL1        0.1285
     15 C          -7.4140   -0.0398    1.6788 C.ar    1  UNL1       -0.0187
     16 H          -6.6062   -0.0232    0.9929 H       1  UNL1        0.0654
     17 C          -7.0359   -0.0754    3.0186 C.ar    1  UNL1       -0.0474
     18 H          -5.9713   -0.0859    3.2146 H       1  UNL1        0.0626
     19 H         -11.0449    0.1876    8.5698 H       1  UNL1        0.0656
     20 O          -6.8889   -0.1245   10.3352 O.3     1  UNL1        0.0656
     21 C          -7.4092   -0.1218    5.4916 C.2     1  UNL1        0.1931
     22 O          -6.1875   -0.1951    5.5435 O.2     1  UNL1       -0.2867
     23 H          -7.2716   -0.0490   11.3218 H       1  UNL1        0.0138
     24 H          -6.5930   -0.0988   -0.9733 H       1  UNL1        0.0655
     25 C          -7.4135   -0.0165   -1.6407 C.ar    1  UNL1       -0.0166
     26 C          -8.7726    0.0443   -1.2493 C.ar    1  UNL1        0.1286
     27 C          -9.7413    0.1406   -2.2638 C.ar    1  UNL1       -0.0166
     28 H         -10.7913    0.1859   -2.0032 H       1  UNL1        0.0655
     29 H          -7.7569    0.1575   -5.0017 H       1  UNL1       -0.2055
     30 H         -10.1421    0.2558   -4.3785 H       1  UNL1        0.0647
     31 C          -8.0352    0.1257   -3.9784 C.ar    1  UNL1        0.1236
     32 C          -9.3791    0.1809   -3.6145 C.ar    1  UNL1       -0.0230
     33 C          -7.0564    0.0265   -2.9928 C.ar    1  UNL1       -0.0230
     34 H          -6.0115   -0.0186   -3.2746 H       1  UNL1        0.0647
     35 H          -9.5327    0.0855   10.5088 H       1  UNL1       -0.2932
     36 O          -9.2532    0.0171    0.0338 O.3     1  UNL1       -0.4560
@<TRIPOS>BOND
     1     2     7   ar
     2     3     4   ar
     3     4     5    1
     4     4     6   ar
     5     6     7   ar
     6     7     8    1
     7     9    10   ar
     8     9    17   ar
     9    10    11    1
    10    10    12   ar
    11    12    13    1
    12    12    14   ar
    13    14    15   ar
    14    15    16    1
    15    15    17   ar
    16    17    18    1
    17     3     1   ar
    18     1     2   ar
    19     3    19    1
    20     2    20    1
    21     6    21    1
    22    21    22    2
    23     9    21    1
    24    14    36    1
    25    24    25    1
    26    25    26   ar
    27    25    33   ar
    28    26    27   ar
    29    27    28    1
    30    27    32   ar
    31    32    30    1
    32    32    31   ar
    33    31    29    1
    34    31    33   ar
    35    33    34    1
    36    26    36    1
    37     1    35    1
    38    20    23    1
